Circuit: * C:\Users\ethan\Documents\GitHub\Big-Crete-Calculator\Hardware\V1 Prototype Boards\Simulations\CC led driver- best I could find.asc

WARNING: Specified period is not longer than the sum of Trise, Tfall, and Ton for v9.  Increasing period to 0.105
Limiting rise time of source v8 to 0.0005
Limiting fall time of source v8 to 0.0005
Limiting rise time of source v7 to 0.0005
Limiting fall time of source v7 to 0.0005
Limiting rise time of source v5 to 0.0005
Limiting fall time of source v5 to 0.0005
Limiting rise time of source v4 to 0.0005
Limiting fall time of source v4 to 0.0005
Direct Newton iteration failed to find .op point.  (Use ".option noopiter" to skip.)
Starting Gmin stepping
Gmin = 10
Gmin = 1.07374
vernier = 0.5
vernier = 0.666667
Gmin = 0.375229
vernier = 0.888888
vernier = 1
Gmin = 0.0567082
Gmin = 0.006089
Gmin = 0.000653801
Gmin = 7.02013e-005
vernier = 0.5
Gmin = 1.99459e-005
vernier = 0.666667
vernier = 0.888888
Gmin = 3.54464e-006
vernier = 1
Gmin = 3.98099e-007
Gmin = 4.27456e-008
Gmin = 4.58977e-009
Gmin = 4.92823e-010
Gmin = 5.29164e-011
Gmin = 5.68186e-012
Gmin = 6.10085e-013
Gmin = 0
Gmin stepping succeeded in finding the operating point.


Date: Thu Oct 12 23:38:20 2023
Total elapsed time: 0.181 seconds.

tnom = 27
temp = 25
method = modified trap
totiter = 13311
traniter = 12557
tranpoints = 3579
accept = 2692
rejected = 887
matrix size = 62
fillins = 11
solver = Normal
Matrix Compiler1: 3.64 KB object code size  0.8/0.3/[0.2]
Matrix Compiler2: 4.95 KB object code size  0.3/0.3/[0.2]

