Circuit: * C:\Users\ethan\Documents\GitHub\Big-Crete-Calculator\Hardware\V1 Prototype Boards\Simulations\CC led driver- best I could find.asc

WARNING: Specified period is not longer than the sum of Trise, Tfall, and Ton for v9.  Increasing period to 0.105
Limiting rise time of source v8 to 0.0005
Limiting fall time of source v8 to 0.0005
Limiting rise time of source v7 to 0.0005
Limiting fall time of source v7 to 0.0005
Limiting rise time of source v5 to 0.0005
Limiting fall time of source v5 to 0.0005
Limiting rise time of source v4 to 0.0005
Limiting fall time of source v4 to 0.0005
Direct Newton iteration failed to find .op point.  (Use ".option noopiter" to skip.)
Starting Gmin stepping
Gmin = 10
Gmin = 1.07374
vernier = 0.5
vernier = 0.666667
Gmin = 0.375229
vernier = 0.888888
vernier = 1
Gmin = 0.0567082
Gmin = 0.006089
Gmin = 0.000653801
Gmin = 7.02013e-005
Gmin = 7.53781e-006
Gmin = 8.09366e-007
Gmin = 8.6905e-008
Gmin = 9.33136e-009
Gmin = 1.00195e-009
Gmin = 1.07583e-010
Gmin = 1.15517e-011
Gmin = 1.24035e-012
Gmin = 1.33182e-013
Gmin = 0
Gmin stepping succeeded in finding the operating point.


Date: Tue Mar 14 16:04:02 2023
Total elapsed time: 0.166 seconds.

tnom = 27
temp = 25
method = modified trap
totiter = 13273
traniter = 12646
tranpoints = 3608
accept = 2730
rejected = 878
matrix size = 62
fillins = 11
solver = Normal
Matrix Compiler1: 3.64 KB object code size  0.7/0.3/[0.2]
Matrix Compiler2: 4.95 KB object code size  0.3/0.3/[0.2]

