Circuit: * C:\Users\ethan\Documents\GitHub\Big-Crete-Calculator\Hardware\V1 Prototype Boards\Simulations\Draft2.asc

WARNING: Less than two connections to node N009.  This node is used by R10.
Direct Newton iteration for .op point succeeded.

Date: Mon Jan 29 12:09:16 2024
Total elapsed time: 0.029 seconds.

tnom = 27
temp = 27
method = trap
totiter = 11
traniter = 0
tranpoints = 0
accept = 0
rejected = 0
matrix size = 145
fillins = 70
solver = Normal
Matrix Compiler1:     533 opcodes
Matrix Compiler2: 12.19 KB object code size
