Circuit: * C:\Users\ethan\Documents\GitHub\Big-Crete-Calculator\Hardware\V1 Prototype Boards\Simulations\Draft1.asc

Fatal Error: Noise input source Rs not in circuit.
